version 2
run WorkstationsToRouter--extern---0-20170209-04:04:59-4360
attr configname WorkstationsToRouter--extern--
attr datetime 20170209-04:04:59
attr experiment WorkstationsToRouter--extern--
attr inifile omnetpp.ini
attr iterationvars ""
attr iterationvars2 $repetition=0
attr measurement ""
attr network Network
attr processid 4360
attr repetition 0
attr replication #0
attr resultdir results
attr runnumber 0
attr seedset 0

