version 2
run WorkstationsToServer-0-20170209-04:07:36-4445
attr configname WorkstationsToServer
attr datetime 20170209-04:07:36
attr experiment WorkstationsToServer
attr inifile omnetpp.ini
attr iterationvars ""
attr iterationvars2 $repetition=0
attr measurement ""
attr network Network
attr processid 4445
attr repetition 0
attr replication #0
attr resultdir results
attr runnumber 0
attr seedset 0

