version 2
run AppearingHost-0-20170214-22:40:39-2465
attr configname AppearingHost
attr datetime 20170214-22:40:39
attr experiment AppearingHost
attr inifile omnetpp.ini
attr iterationvars ""
attr iterationvars2 $repetition=0
attr measurement ""
attr network Network
attr processid 2465
attr repetition 0
attr replication #0
attr resultdir results
attr runnumber 0
attr seedset 0

