version 2
run ReconnectHost-0-20170214-00:57:11-2266
attr configname ReconnectHost
attr datetime 20170214-00:57:11
attr experiment ReconnectHost
attr inifile omnetpp.ini
attr iterationvars ""
attr iterationvars2 $repetition=0
attr measurement ""
attr network Network
attr processid 2266
attr repetition 0
attr replication #0
attr resultdir results
attr runnumber 0
attr seedset 0

