version 2
run ExternToServer-0-20170209-01:13:40-1859
attr configname ExternToServer
attr datetime 20170209-01:13:40
attr experiment ExternToServer
attr inifile omnetpp.ini
attr iterationvars ""
attr iterationvars2 $repetition=0
attr measurement ""
attr network Network
attr processid 1859
attr repetition 0
attr replication #0
attr resultdir results
attr runnumber 0
attr seedset 0

